LTspice 24.0.12 for Windows
Circuit: * C:\Users\Nilakna\OneDrive - University of Moratuwa\Github\en2091-guitar-headphone-amp\simulation\main.asc
Start Time: Tue Oct 22 10:55:23 2024
Warning: Multiple definitions of model "2scr375p" Type: BJT
Warning: Multiple definitions of model "bc857b" Type: BJT
Warning: Multiple definitions of model "bc847c" Type: BJT
Warning: Multiple definitions of model "bc847b" Type: BJT
solver = Normal
Maximum thread count: 20
tnom = 27
temp = 27
method = modified trap
WARNING: Less than two connections to node n009.  This node is used by r2.
Direct Newton iteration failed to find .op point.  (Use ".option noopiter" to skip.)
Starting Gmin stepping
Gmin = 10
vernier = 0.5
vernier = 0.25
vernier = 0.125
vernier = 0.0625
Gmin = 8.36601
vernier = 0.03125
vernier = 0.015625
vernier = 0.0078125
Gmin = 8.23665
vernier = 0.00390625
vernier = 0.00195312
vernier = 0.000976562
vernier = 0.000488281
Gmin = 0
Gmin = 0
Gmin stepping failed

Starting source stepping with srcstepmethod=0
Source Step = 3.0303%
Source Step = 6.07244%
Source Step = 6.10204%
Source Step = 6.13163%
Source Step = 6.16122%
Source Step = 6.19081%
vernier = 0.00146484
Source Step = 6.22189%
Source Step = 6.26628%
Source Step = 6.31067%
Source Step = 6.35505%
Source Step = 6.39944%
Source Step = 6.44383%
vernier = 0.00219727
Source Step = 6.51042%
Source Step = 6.577%
Source Step = 6.64358%
Source Step = 6.71017%
Source Step = 6.77675%
vernier = 0.0032959
Source Step = 6.8733%
Source Step = 6.97317%
Source Step = 7.07305%
Source Step = 7.17293%
Source Step = 7.2728%
vernier = 0.00494385
Source Step = 7.41263%
Source Step = 7.56244%
Source Step = 7.71225%
Source Step = 7.86207%
Source Step = 8.01188%
vernier = 0.00741577
Source Step = 8.21413%
Source Step = 8.43885%
Source Step = 8.66357%
Source Step = 8.88829%
Source Step = 9.11301%
vernier = 0.0111237
Source Step = 9.40515%
Source Step = 9.74223%
Source Step = 10.0793%
Source Step = 10.4164%
Source Step = 10.7535%
vernier = 0.0166855
Source Step = 11.1748%
Source Step = 11.6804%
Source Step = 12.1861%
Source Step = 12.6917%
Source Step = 13.1973%
vernier = 0.0250282
Source Step = 13.804%
Source Step = 14.5625%
Source Step = 15.3209%
Source Step = 16.0793%
Source Step = 16.8378%
vernier = 0.0375423
Source Step = 17.71%
Source Step = 18.8476%
Source Step = 19.9853%
Source Step = 21.1229%
Source Step = 22.2606%
vernier = 0.0563135
Source Step = 23.512%
Source Step = 25.2184%
Source Step = 26.9249%
Source Step = 28.6314%
Source Step = 30.3378%
vernier = 0.0844703
Source Step = 32.1296%
Source Step = 34.6893%
Source Step = 37.2491%
Source Step = 39.8088%
Source Step = 42.3685%
Source Step = 44.9282%
vernier = 0.126705
Source Step = 48.7677%
Source Step = 52.6073%
Source Step = 56.4468%
Source Step = 60.2864%
Source Step = 64.126%
vernier = 0.190058
Source Step = 69.6933%
Source Step = 75.4527%
Source Step = 81.212%
Source Step = 86.9713%
Source Step = 90.004%
Source Step = 90.094%
Source Step = 90.184%
Source Step = 90.2739%
Source Step = 90.3639%
Source Step = 90.4539%
Source Step = 90.5439%
Source Step = 90.6339%
Source Step = 90.7239%
Source Step = 90.8139%
Source Step = 90.9039%
Source Step = 90.9939%
Source Step = 91.0839%
Source Step = 91.1738%
Source Step = 91.2638%
Source Step = 91.3538%
Source Step = 91.4438%
Source Step = 91.5338%
Source Step = 91.6238%
Source Step = 91.7138%
Source Step = 91.8038%
Source Step = 91.8938%
Source Step = 91.9837%
Source Step = 92.0737%
Source Step = 92.1637%
Source Step = 92.2537%
Source Step = 92.3437%
Starting source stepping with srcstepmethod=1
Source Step = 3.0303%
vernier = 0.25
Source Step = 0.0828598%
Source Step = 0.201231%
Source Step = 0.319602%
Source Step = 0.437973%
Source Step = 0.556345%
vernier = 0.00585938
Source Step = 0.710227%
Source Step = 0.763494%
Source stepping failed

Pseudo Transient succeeded in finding the operating point at 37.5663 s.
Ignoring empty pin current: Ix(u1:in+)
Ignoring empty pin current: Ix(u1:in-)
Ignoring empty pin current: Ix(u1:vcc)
Ignoring empty pin current: Ix(u1:vee)
Ignoring empty pin current: Ix(u1:out)
Ignoring empty pin current: Ix(u2:in+)
Ignoring empty pin current: Ix(u2:in-)
Ignoring empty pin current: Ix(u2:vcc)
Ignoring empty pin current: Ix(u2:vee)
Ignoring empty pin current: Ix(u2:out)
Ignoring empty pin current: Ix(ips:+v)
Ignoring empty pin current: Ix(ips:-v)
Ignoring empty pin current: Ix(ips:gnd)
Ignoring empty pin current: Ix(gs:+v)
Ignoring empty pin current: Ix(gs:-v)
Ignoring empty pin current: Ix(gs:out)
Ignoring empty pin current: Ix(u1:in+)
Ignoring empty pin current: Ix(u1:in-)
Ignoring empty pin current: Ix(u1:vcc)
Ignoring empty pin current: Ix(u1:vee)
Ignoring empty pin current: Ix(u1:out)
Ignoring empty pin current: Ix(u2:in+)
Ignoring empty pin current: Ix(u2:in-)
Ignoring empty pin current: Ix(u2:vcc)
Ignoring empty pin current: Ix(u2:vee)
Ignoring empty pin current: Ix(u2:out)
Ignoring empty pin current: Ix(ips:+v)
Ignoring empty pin current: Ix(ips:-v)
Ignoring empty pin current: Ix(ips:gnd)
Ignoring empty pin current: Ix(gs:+v)
Ignoring empty pin current: Ix(gs:-v)
Ignoring empty pin current: Ix(gs:out)
Total elapsed time: 12.902 seconds.

