LTspice 24.0.12 for Windows
Circuit: * C:\Users\Nilakna\OneDrive - University of Moratuwa\Github\en2091-guitar-headphone-amp\simulation\input_stage\opamp_ver_nov\preamp.asc
Start Time: Sat Nov 23 17:55:10 2024
solver = Normal
Maximum thread count: 20
tnom = 27
temp = 27
method = modified trap
WARNING: Node OUTPUT is floating.

WARNING: Less than two connections to node output.  This node is used by c1.
Early termination of direct N-R iteration.
Direct Newton iteration failed to find .op point.  (Use ".option noopiter" to skip.)
Starting Gmin stepping
Gmin = 10
vernier = 0.5
vernier = 0.25
vernier = 0.125
vernier = 0.0625
Gmin = 8.36601
vernier = 0.03125
vernier = 0.015625
vernier = 0.0078125
Gmin = 8.23665
vernier = 0.00390625
vernier = 0.00195312
vernier = 0.000976562
vernier = 0.000488281
Gmin = 0
Gmin = 0
Gmin stepping failed

Starting source stepping with srcstepmethod=0
Source Step = 3.0303%
Source Step = 33.3333%
Source Step = 63.6364%
Source Step = 93.9394%
Source stepping succeeded in finding the operating point.

Total elapsed time: 0.509 seconds.

